*SPEF "ieee 1481-1999"
*DESIGN "R4_butter"
*DATE "11:11:11 Fri 11 11, 1111"
*VENDOR "OpenRCX"
*PROGRAM "Parallel Extraction"
*VERSION "1.0"
*DESIGN_FLOW "NAME_SCOPE LOCAL" "PIN_CAP NONE"
*DIVIDER /
*DELIMITER :
*BUS_DELIMITER []
*T_UNIT 1 NS
*C_UNIT 1 PF
*R_UNIT 1 OHM
*L_UNIT 1 HENRY

*NAME_MAP
*1 CLK
*2 RST
*3 Xio[0]
*4 net14
*5 net15
*6 net16
*7 Xro[0]
*8 net17
*9 net18
*10 net19
*11 c1
*12 c2
*13 c3
*16 xi0[0]
*17 xi0[1]
*18 xi0[2]
*19 xi0[3]
*20 xi1[0]
*21 xi1[1]
*22 xi1[2]
*23 xi1[3]
*24 xi2[0]
*25 xi2[1]
*26 xi2[2]
*27 xi2[3]
*28 xi3[0]
*29 xi3[1]
*30 xi3[2]
*31 xi3[3]
*32 xr0[0]
*33 xr0[1]
*34 xr0[2]
*35 xr0[3]
*36 xr1[0]
*37 xr1[1]
*38 xr1[2]
*39 xr1[3]
*40 xr2[0]
*41 xr2[1]
*42 xr2[2]
*43 xr2[3]
*44 xr3[0]
*45 xr3[1]
*46 xr3[2]
*47 xr3[3]
*48 Q1
*49 Q10
*50 Q11
*51 Q12
*52 Q2
*53 Q5
*54 Q6
*55 Q8
*56 _00_
*57 _01_
*58 _02_
*59 _03_
*60 _04_
*61 _05_
*62 _06_
*63 _07_
*64 _08_
*65 _09_
*66 _10_
*67 _11_
*68 _12_
*69 _13_
*70 _14_
*71 _15_
*72 _16_
*73 _17_
*74 _18_
*75 _19_
*76 net1
*77 net10
*78 net11
*79 net12
*80 net13
*81 net2
*82 net3
*83 net4
*84 net5
*85 net6
*86 net7
*87 net8
*88 net9
*89 ANTENNA__20__B
*90 ANTENNA__21__S
*91 ANTENNA__23__S
*92 ANTENNA__25__B1
*93 ANTENNA__27__A
*94 ANTENNA__28__A
*95 ANTENNA__29__A
*96 ANTENNA__30__A
*97 ANTENNA__31__A
*98 ANTENNA__32__A
*99 ANTENNA__33__A
*100 ANTENNA__34__S
*101 ANTENNA__36__S
*102 ANTENNA__38__B1
*103 ANTENNA__40__CLK
*104 ANTENNA__41__CLK
*105 ANTENNA__42__CLK
*106 ANTENNA__43__CLK
*107 ANTENNA__44__CLK
*108 ANTENNA__45__CLK
*109 ANTENNA__46__CLK
*110 ANTENNA__47__CLK
*111 ANTENNA__48__CLK
*112 ANTENNA__49__CLK
*113 FILLER_0_0_101
*114 FILLER_0_0_109
*115 FILLER_0_0_113
*116 FILLER_0_0_125
*117 FILLER_0_0_137
*118 FILLER_0_0_141
*119 FILLER_0_0_153
*120 FILLER_0_0_165
*121 FILLER_0_0_169
*122 FILLER_0_0_18
*123 FILLER_0_0_181
*124 FILLER_0_0_193
*125 FILLER_0_0_197
*126 FILLER_0_0_209
*127 FILLER_0_0_221
*128 FILLER_0_0_225
*129 FILLER_0_0_23
*130 FILLER_0_0_237
*131 FILLER_0_0_249
*132 FILLER_0_0_253
*133 FILLER_0_0_265
*134 FILLER_0_0_27
*135 FILLER_0_0_277
*136 FILLER_0_0_281
*137 FILLER_0_0_289
*138 FILLER_0_0_29
*139 FILLER_0_0_3
*140 FILLER_0_0_328
*141 FILLER_0_0_333
*142 FILLER_0_0_337
*143 FILLER_0_0_342
*144 FILLER_0_0_351
*145 FILLER_0_0_357
*146 FILLER_0_0_36
*147 FILLER_0_0_45
*148 FILLER_0_0_54
*149 FILLER_0_0_57
*150 FILLER_0_0_63
*151 FILLER_0_0_67
*152 FILLER_0_0_72
*153 FILLER_0_0_79
*154 FILLER_0_0_83
*155 FILLER_0_0_85
*156 FILLER_0_0_89
*157 FILLER_0_0_9
*158 FILLER_0_10_109
*159 FILLER_0_10_121
*160 FILLER_0_10_133
*161 FILLER_0_10_139
*162 FILLER_0_10_141
*163 FILLER_0_10_15
*164 FILLER_0_10_153
*165 FILLER_0_10_165
*166 FILLER_0_10_177
*167 FILLER_0_10_189
*168 FILLER_0_10_195
*169 FILLER_0_10_197
*170 FILLER_0_10_209
*171 FILLER_0_10_221
*172 FILLER_0_10_233
*173 FILLER_0_10_245
*174 FILLER_0_10_251
*175 FILLER_0_10_253
*176 FILLER_0_10_265
*177 FILLER_0_10_27
*178 FILLER_0_10_277
*179 FILLER_0_10_289
*180 FILLER_0_10_29
*181 FILLER_0_10_3
*182 FILLER_0_10_301
*183 FILLER_0_10_307
*184 FILLER_0_10_309
*185 FILLER_0_10_321
*186 FILLER_0_10_333
*187 FILLER_0_10_345
*188 FILLER_0_10_357
*189 FILLER_0_10_363
*190 FILLER_0_10_365
*191 FILLER_0_10_41
*192 FILLER_0_10_53
*193 FILLER_0_10_65
*194 FILLER_0_10_77
*195 FILLER_0_10_83
*196 FILLER_0_10_85
*197 FILLER_0_10_97
*198 FILLER_0_11_105
*199 FILLER_0_11_111
*200 FILLER_0_11_113
*201 FILLER_0_11_125
*202 FILLER_0_11_137
*203 FILLER_0_11_149
*204 FILLER_0_11_15
*205 FILLER_0_11_161
*206 FILLER_0_11_167
*207 FILLER_0_11_169
*208 FILLER_0_11_181
*209 FILLER_0_11_193
*210 FILLER_0_11_205
*211 FILLER_0_11_217
*212 FILLER_0_11_223
*213 FILLER_0_11_225
*214 FILLER_0_11_237
*215 FILLER_0_11_249
*216 FILLER_0_11_261
*217 FILLER_0_11_27
*218 FILLER_0_11_273
*219 FILLER_0_11_279
*220 FILLER_0_11_281
*221 FILLER_0_11_293
*222 FILLER_0_11_3
*223 FILLER_0_11_305
*224 FILLER_0_11_317
*225 FILLER_0_11_329
*226 FILLER_0_11_335
*227 FILLER_0_11_337
*228 FILLER_0_11_349
*229 FILLER_0_11_361
*230 FILLER_0_11_367
*231 FILLER_0_11_39
*232 FILLER_0_11_51
*233 FILLER_0_11_55
*234 FILLER_0_11_57
*235 FILLER_0_11_69
*236 FILLER_0_11_81
*237 FILLER_0_11_93
*238 FILLER_0_12_109
*239 FILLER_0_12_121
*240 FILLER_0_12_133
*241 FILLER_0_12_139
*242 FILLER_0_12_141
*243 FILLER_0_12_15
*244 FILLER_0_12_153
*245 FILLER_0_12_165
*246 FILLER_0_12_177
*247 FILLER_0_12_189
*248 FILLER_0_12_195
*249 FILLER_0_12_197
*250 FILLER_0_12_209
*251 FILLER_0_12_221
*252 FILLER_0_12_233
*253 FILLER_0_12_245
*254 FILLER_0_12_251
*255 FILLER_0_12_253
*256 FILLER_0_12_265
*257 FILLER_0_12_27
*258 FILLER_0_12_277
*259 FILLER_0_12_289
*260 FILLER_0_12_29
*261 FILLER_0_12_3
*262 FILLER_0_12_301
*263 FILLER_0_12_307
*264 FILLER_0_12_309
*265 FILLER_0_12_321
*266 FILLER_0_12_333
*267 FILLER_0_12_345
*268 FILLER_0_12_357
*269 FILLER_0_12_363
*270 FILLER_0_12_365
*271 FILLER_0_12_41
*272 FILLER_0_12_53
*273 FILLER_0_12_65
*274 FILLER_0_12_77
*275 FILLER_0_12_83
*276 FILLER_0_12_85
*277 FILLER_0_12_97
*278 FILLER_0_13_105
*279 FILLER_0_13_111
*280 FILLER_0_13_113
*281 FILLER_0_13_125
*282 FILLER_0_13_137
*283 FILLER_0_13_149
*284 FILLER_0_13_15
*285 FILLER_0_13_161
*286 FILLER_0_13_167
*287 FILLER_0_13_169
*288 FILLER_0_13_181
*289 FILLER_0_13_193
*290 FILLER_0_13_205
*291 FILLER_0_13_217
*292 FILLER_0_13_223
*293 FILLER_0_13_225
*294 FILLER_0_13_237
*295 FILLER_0_13_249
*296 FILLER_0_13_261
*297 FILLER_0_13_27
*298 FILLER_0_13_273
*299 FILLER_0_13_279
*300 FILLER_0_13_281
*301 FILLER_0_13_293
*302 FILLER_0_13_3
*303 FILLER_0_13_305
*304 FILLER_0_13_317
*305 FILLER_0_13_329
*306 FILLER_0_13_335
*307 FILLER_0_13_337
*308 FILLER_0_13_349
*309 FILLER_0_13_361
*310 FILLER_0_13_367
*311 FILLER_0_13_39
*312 FILLER_0_13_51
*313 FILLER_0_13_55
*314 FILLER_0_13_57
*315 FILLER_0_13_69
*316 FILLER_0_13_81
*317 FILLER_0_13_93
*318 FILLER_0_14_109
*319 FILLER_0_14_121
*320 FILLER_0_14_133
*321 FILLER_0_14_139
*322 FILLER_0_14_141
*323 FILLER_0_14_15
*324 FILLER_0_14_153
*325 FILLER_0_14_165
*326 FILLER_0_14_177
*327 FILLER_0_14_189
*328 FILLER_0_14_195
*329 FILLER_0_14_197
*330 FILLER_0_14_209
*331 FILLER_0_14_221
*332 FILLER_0_14_233
*333 FILLER_0_14_245
*334 FILLER_0_14_251
*335 FILLER_0_14_253
*336 FILLER_0_14_265
*337 FILLER_0_14_27
*338 FILLER_0_14_277
*339 FILLER_0_14_289
*340 FILLER_0_14_29
*341 FILLER_0_14_3
*342 FILLER_0_14_301
*343 FILLER_0_14_307
*344 FILLER_0_14_309
*345 FILLER_0_14_321
*346 FILLER_0_14_333
*347 FILLER_0_14_345
*348 FILLER_0_14_357
*349 FILLER_0_14_363
*350 FILLER_0_14_365
*351 FILLER_0_14_41
*352 FILLER_0_14_53
*353 FILLER_0_14_65
*354 FILLER_0_14_77
*355 FILLER_0_14_83
*356 FILLER_0_14_85
*357 FILLER_0_14_97
*358 FILLER_0_15_105
*359 FILLER_0_15_111
*360 FILLER_0_15_113
*361 FILLER_0_15_125
*362 FILLER_0_15_137
*363 FILLER_0_15_149
*364 FILLER_0_15_15
*365 FILLER_0_15_161
*366 FILLER_0_15_167
*367 FILLER_0_15_169
*368 FILLER_0_15_181
*369 FILLER_0_15_193
*370 FILLER_0_15_205
*371 FILLER_0_15_217
*372 FILLER_0_15_223
*373 FILLER_0_15_225
*374 FILLER_0_15_237
*375 FILLER_0_15_249
*376 FILLER_0_15_261
*377 FILLER_0_15_27
*378 FILLER_0_15_273
*379 FILLER_0_15_279
*380 FILLER_0_15_281
*381 FILLER_0_15_293
*382 FILLER_0_15_3
*383 FILLER_0_15_305
*384 FILLER_0_15_317
*385 FILLER_0_15_329
*386 FILLER_0_15_335
*387 FILLER_0_15_337
*388 FILLER_0_15_349
*389 FILLER_0_15_361
*390 FILLER_0_15_367
*391 FILLER_0_15_39
*392 FILLER_0_15_51
*393 FILLER_0_15_55
*394 FILLER_0_15_57
*395 FILLER_0_15_69
*396 FILLER_0_15_81
*397 FILLER_0_15_93
*398 FILLER_0_16_109
*399 FILLER_0_16_121
*400 FILLER_0_16_133
*401 FILLER_0_16_139
*402 FILLER_0_16_141
*403 FILLER_0_16_15
*404 FILLER_0_16_153
*405 FILLER_0_16_165
*406 FILLER_0_16_177
*407 FILLER_0_16_189
*408 FILLER_0_16_195
*409 FILLER_0_16_197
*410 FILLER_0_16_209
*411 FILLER_0_16_221
*412 FILLER_0_16_233
*413 FILLER_0_16_245
*414 FILLER_0_16_251
*415 FILLER_0_16_253
*416 FILLER_0_16_265
*417 FILLER_0_16_27
*418 FILLER_0_16_277
*419 FILLER_0_16_289
*420 FILLER_0_16_29
*421 FILLER_0_16_3
*422 FILLER_0_16_301
*423 FILLER_0_16_307
*424 FILLER_0_16_309
*425 FILLER_0_16_321
*426 FILLER_0_16_333
*427 FILLER_0_16_345
*428 FILLER_0_16_357
*429 FILLER_0_16_363
*430 FILLER_0_16_365
*431 FILLER_0_16_41
*432 FILLER_0_16_53
*433 FILLER_0_16_65
*434 FILLER_0_16_77
*435 FILLER_0_16_83
*436 FILLER_0_16_85
*437 FILLER_0_16_97
*438 FILLER_0_17_105
*439 FILLER_0_17_111
*440 FILLER_0_17_113
*441 FILLER_0_17_125
*442 FILLER_0_17_137
*443 FILLER_0_17_149
*444 FILLER_0_17_15
*445 FILLER_0_17_161
*446 FILLER_0_17_167
*447 FILLER_0_17_169
*448 FILLER_0_17_181
*449 FILLER_0_17_193
*450 FILLER_0_17_205
*451 FILLER_0_17_217
*452 FILLER_0_17_223
*453 FILLER_0_17_225
*454 FILLER_0_17_237
*455 FILLER_0_17_249
*456 FILLER_0_17_261
*457 FILLER_0_17_27
*458 FILLER_0_17_273
*459 FILLER_0_17_279
*460 FILLER_0_17_281
*461 FILLER_0_17_293
*462 FILLER_0_17_3
*463 FILLER_0_17_305
*464 FILLER_0_17_317
*465 FILLER_0_17_329
*466 FILLER_0_17_335
*467 FILLER_0_17_337
*468 FILLER_0_17_349
*469 FILLER_0_17_361
*470 FILLER_0_17_367
*471 FILLER_0_17_39
*472 FILLER_0_17_51
*473 FILLER_0_17_55
*474 FILLER_0_17_57
*475 FILLER_0_17_69
*476 FILLER_0_17_81
*477 FILLER_0_17_93
*478 FILLER_0_18_109
*479 FILLER_0_18_121
*480 FILLER_0_18_133
*481 FILLER_0_18_139
*482 FILLER_0_18_141
*483 FILLER_0_18_15
*484 FILLER_0_18_153
*485 FILLER_0_18_165
*486 FILLER_0_18_177
*487 FILLER_0_18_189
*488 FILLER_0_18_195
*489 FILLER_0_18_197
*490 FILLER_0_18_209
*491 FILLER_0_18_221
*492 FILLER_0_18_233
*493 FILLER_0_18_245
*494 FILLER_0_18_251
*495 FILLER_0_18_253
*496 FILLER_0_18_265
*497 FILLER_0_18_27
*498 FILLER_0_18_277
*499 FILLER_0_18_289
*500 FILLER_0_18_29
*501 FILLER_0_18_3
*502 FILLER_0_18_301
*503 FILLER_0_18_307
*504 FILLER_0_18_309
*505 FILLER_0_18_321
*506 FILLER_0_18_333
*507 FILLER_0_18_345
*508 FILLER_0_18_357
*509 FILLER_0_18_363
*510 FILLER_0_18_365
*511 FILLER_0_18_41
*512 FILLER_0_18_53
*513 FILLER_0_18_65
*514 FILLER_0_18_77
*515 FILLER_0_18_83
*516 FILLER_0_18_85
*517 FILLER_0_18_97
*518 FILLER_0_19_105
*519 FILLER_0_19_111
*520 FILLER_0_19_113
*521 FILLER_0_19_125
*522 FILLER_0_19_137
*523 FILLER_0_19_149
*524 FILLER_0_19_15
*525 FILLER_0_19_161
*526 FILLER_0_19_167
*527 FILLER_0_19_169
*528 FILLER_0_19_181
*529 FILLER_0_19_193
*530 FILLER_0_19_205
*531 FILLER_0_19_217
*532 FILLER_0_19_223
*533 FILLER_0_19_225
*534 FILLER_0_19_237
*535 FILLER_0_19_249
*536 FILLER_0_19_261
*537 FILLER_0_19_27
*538 FILLER_0_19_273
*539 FILLER_0_19_279
*540 FILLER_0_19_281
*541 FILLER_0_19_293
*542 FILLER_0_19_3
*543 FILLER_0_19_305
*544 FILLER_0_19_317
*545 FILLER_0_19_329
*546 FILLER_0_19_335
*547 FILLER_0_19_337
*548 FILLER_0_19_349
*549 FILLER_0_19_361
*550 FILLER_0_19_367
*551 FILLER_0_19_39
*552 FILLER_0_19_51
*553 FILLER_0_19_55
*554 FILLER_0_19_57
*555 FILLER_0_19_69
*556 FILLER_0_19_81
*557 FILLER_0_19_93
*558 FILLER_0_1_102
*559 FILLER_0_1_129
*560 FILLER_0_1_133
*561 FILLER_0_1_145
*562 FILLER_0_1_15
*563 FILLER_0_1_157
*564 FILLER_0_1_165
*565 FILLER_0_1_169
*566 FILLER_0_1_181
*567 FILLER_0_1_193
*568 FILLER_0_1_205
*569 FILLER_0_1_217
*570 FILLER_0_1_223
*571 FILLER_0_1_225
*572 FILLER_0_1_237
*573 FILLER_0_1_249
*574 FILLER_0_1_26
*575 FILLER_0_1_261
*576 FILLER_0_1_273
*577 FILLER_0_1_279
*578 FILLER_0_1_281
*579 FILLER_0_1_293
*580 FILLER_0_1_3
*581 FILLER_0_1_305
*582 FILLER_0_1_311
*583 FILLER_0_1_315
*584 FILLER_0_1_327
*585 FILLER_0_1_335
*586 FILLER_0_1_337
*587 FILLER_0_1_349
*588 FILLER_0_1_361
*589 FILLER_0_1_367
*590 FILLER_0_1_49
*591 FILLER_0_1_62
*592 FILLER_0_1_81
*593 FILLER_0_1_98
*594 FILLER_0_20_109
*595 FILLER_0_20_121
*596 FILLER_0_20_133
*597 FILLER_0_20_139
*598 FILLER_0_20_141
*599 FILLER_0_20_15
*600 FILLER_0_20_153
*601 FILLER_0_20_165
*602 FILLER_0_20_177
*603 FILLER_0_20_189
*604 FILLER_0_20_195
*605 FILLER_0_20_197
*606 FILLER_0_20_209
*607 FILLER_0_20_221
*608 FILLER_0_20_233
*609 FILLER_0_20_245
*610 FILLER_0_20_251
*611 FILLER_0_20_253
*612 FILLER_0_20_265
*613 FILLER_0_20_27
*614 FILLER_0_20_277
*615 FILLER_0_20_289
*616 FILLER_0_20_29
*617 FILLER_0_20_3
*618 FILLER_0_20_301
*619 FILLER_0_20_307
*620 FILLER_0_20_309
*621 FILLER_0_20_321
*622 FILLER_0_20_333
*623 FILLER_0_20_345
*624 FILLER_0_20_357
*625 FILLER_0_20_363
*626 FILLER_0_20_365
*627 FILLER_0_20_41
*628 FILLER_0_20_53
*629 FILLER_0_20_65
*630 FILLER_0_20_77
*631 FILLER_0_20_83
*632 FILLER_0_20_85
*633 FILLER_0_20_97
*634 FILLER_0_21_105
*635 FILLER_0_21_111
*636 FILLER_0_21_113
*637 FILLER_0_21_125
*638 FILLER_0_21_137
*639 FILLER_0_21_149
*640 FILLER_0_21_15
*641 FILLER_0_21_161
*642 FILLER_0_21_167
*643 FILLER_0_21_169
*644 FILLER_0_21_181
*645 FILLER_0_21_193
*646 FILLER_0_21_205
*647 FILLER_0_21_217
*648 FILLER_0_21_223
*649 FILLER_0_21_225
*650 FILLER_0_21_237
*651 FILLER_0_21_249
*652 FILLER_0_21_261
*653 FILLER_0_21_27
*654 FILLER_0_21_273
*655 FILLER_0_21_279
*656 FILLER_0_21_281
*657 FILLER_0_21_293
*658 FILLER_0_21_3
*659 FILLER_0_21_305
*660 FILLER_0_21_317
*661 FILLER_0_21_329
*662 FILLER_0_21_335
*663 FILLER_0_21_337
*664 FILLER_0_21_349
*665 FILLER_0_21_361
*666 FILLER_0_21_367
*667 FILLER_0_21_39
*668 FILLER_0_21_51
*669 FILLER_0_21_55
*670 FILLER_0_21_57
*671 FILLER_0_21_69
*672 FILLER_0_21_81
*673 FILLER_0_21_93
*674 FILLER_0_22_109
*675 FILLER_0_22_121
*676 FILLER_0_22_133
*677 FILLER_0_22_139
*678 FILLER_0_22_141
*679 FILLER_0_22_15
*680 FILLER_0_22_153
*681 FILLER_0_22_165
*682 FILLER_0_22_177
*683 FILLER_0_22_189
*684 FILLER_0_22_195
*685 FILLER_0_22_197
*686 FILLER_0_22_209
*687 FILLER_0_22_221
*688 FILLER_0_22_233
*689 FILLER_0_22_245
*690 FILLER_0_22_251
*691 FILLER_0_22_253
*692 FILLER_0_22_265
*693 FILLER_0_22_27
*694 FILLER_0_22_277
*695 FILLER_0_22_289
*696 FILLER_0_22_29
*697 FILLER_0_22_3
*698 FILLER_0_22_301
*699 FILLER_0_22_307
*700 FILLER_0_22_309
*701 FILLER_0_22_321
*702 FILLER_0_22_333
*703 FILLER_0_22_345
*704 FILLER_0_22_357
*705 FILLER_0_22_363
*706 FILLER_0_22_365
*707 FILLER_0_22_41
*708 FILLER_0_22_53
*709 FILLER_0_22_65
*710 FILLER_0_22_77
*711 FILLER_0_22_83
*712 FILLER_0_22_85
*713 FILLER_0_22_97
*714 FILLER_0_23_105
*715 FILLER_0_23_111
*716 FILLER_0_23_113
*717 FILLER_0_23_125
*718 FILLER_0_23_137
*719 FILLER_0_23_149
*720 FILLER_0_23_15
*721 FILLER_0_23_161
*722 FILLER_0_23_167
*723 FILLER_0_23_169
*724 FILLER_0_23_181
*725 FILLER_0_23_193
*726 FILLER_0_23_205
*727 FILLER_0_23_217
*728 FILLER_0_23_223
*729 FILLER_0_23_225
*730 FILLER_0_23_237
*731 FILLER_0_23_249
*732 FILLER_0_23_261
*733 FILLER_0_23_27
*734 FILLER_0_23_273
*735 FILLER_0_23_279
*736 FILLER_0_23_281
*737 FILLER_0_23_293
*738 FILLER_0_23_3
*739 FILLER_0_23_305
*740 FILLER_0_23_317
*741 FILLER_0_23_329
*742 FILLER_0_23_335
*743 FILLER_0_23_337
*744 FILLER_0_23_349
*745 FILLER_0_23_361
*746 FILLER_0_23_367
*747 FILLER_0_23_39
*748 FILLER_0_23_51
*749 FILLER_0_23_55
*750 FILLER_0_23_57
*751 FILLER_0_23_69
*752 FILLER_0_23_81
*753 FILLER_0_23_93
*754 FILLER_0_24_109
*755 FILLER_0_24_121
*756 FILLER_0_24_133
*757 FILLER_0_24_139
*758 FILLER_0_24_141
*759 FILLER_0_24_15
*760 FILLER_0_24_153
*761 FILLER_0_24_165
*762 FILLER_0_24_177
*763 FILLER_0_24_189
*764 FILLER_0_24_195
*765 FILLER_0_24_197
*766 FILLER_0_24_209
*767 FILLER_0_24_221
*768 FILLER_0_24_233
*769 FILLER_0_24_245
*770 FILLER_0_24_251
*771 FILLER_0_24_253
*772 FILLER_0_24_265
*773 FILLER_0_24_27
*774 FILLER_0_24_277
*775 FILLER_0_24_289
*776 FILLER_0_24_29
*777 FILLER_0_24_3
*778 FILLER_0_24_301
*779 FILLER_0_24_307
*780 FILLER_0_24_309
*781 FILLER_0_24_321
*782 FILLER_0_24_333
*783 FILLER_0_24_345
*784 FILLER_0_24_357
*785 FILLER_0_24_363
*786 FILLER_0_24_365
*787 FILLER_0_24_41
*788 FILLER_0_24_53
*789 FILLER_0_24_65
*790 FILLER_0_24_77
*791 FILLER_0_24_83
*792 FILLER_0_24_85
*793 FILLER_0_24_97
*794 FILLER_0_25_105
*795 FILLER_0_25_111
*796 FILLER_0_25_113
*797 FILLER_0_25_125
*798 FILLER_0_25_137
*799 FILLER_0_25_149
*800 FILLER_0_25_15
*801 FILLER_0_25_161
*802 FILLER_0_25_167
*803 FILLER_0_25_169
*804 FILLER_0_25_181
*805 FILLER_0_25_193
*806 FILLER_0_25_205
*807 FILLER_0_25_217
*808 FILLER_0_25_223
*809 FILLER_0_25_225
*810 FILLER_0_25_237
*811 FILLER_0_25_249
*812 FILLER_0_25_261
*813 FILLER_0_25_27
*814 FILLER_0_25_273
*815 FILLER_0_25_279
*816 FILLER_0_25_281
*817 FILLER_0_25_293
*818 FILLER_0_25_3
*819 FILLER_0_25_305
*820 FILLER_0_25_317
*821 FILLER_0_25_329
*822 FILLER_0_25_335
*823 FILLER_0_25_337
*824 FILLER_0_25_349
*825 FILLER_0_25_361
*826 FILLER_0_25_367
*827 FILLER_0_25_39
*828 FILLER_0_25_51
*829 FILLER_0_25_55
*830 FILLER_0_25_57
*831 FILLER_0_25_69
*832 FILLER_0_25_81
*833 FILLER_0_25_93
*834 FILLER_0_26_109
*835 FILLER_0_26_121
*836 FILLER_0_26_133
*837 FILLER_0_26_139
*838 FILLER_0_26_141
*839 FILLER_0_26_15
*840 FILLER_0_26_153
*841 FILLER_0_26_165
*842 FILLER_0_26_177
*843 FILLER_0_26_189
*844 FILLER_0_26_195
*845 FILLER_0_26_197
*846 FILLER_0_26_209
*847 FILLER_0_26_221
*848 FILLER_0_26_233
*849 FILLER_0_26_245
*850 FILLER_0_26_251
*851 FILLER_0_26_253
*852 FILLER_0_26_265
*853 FILLER_0_26_27
*854 FILLER_0_26_277
*855 FILLER_0_26_289
*856 FILLER_0_26_29
*857 FILLER_0_26_3
*858 FILLER_0_26_301
*859 FILLER_0_26_307
*860 FILLER_0_26_309
*861 FILLER_0_26_321
*862 FILLER_0_26_333
*863 FILLER_0_26_345
*864 FILLER_0_26_357
*865 FILLER_0_26_363
*866 FILLER_0_26_365
*867 FILLER_0_26_41
*868 FILLER_0_26_53
*869 FILLER_0_26_65
*870 FILLER_0_26_77
*871 FILLER_0_26_83
*872 FILLER_0_26_85
*873 FILLER_0_26_97
*874 FILLER_0_27_105
*875 FILLER_0_27_111
*876 FILLER_0_27_113
*877 FILLER_0_27_125
*878 FILLER_0_27_137
*879 FILLER_0_27_149
*880 FILLER_0_27_15
*881 FILLER_0_27_161
*882 FILLER_0_27_167
*883 FILLER_0_27_169
*884 FILLER_0_27_181
*885 FILLER_0_27_193
*886 FILLER_0_27_205
*887 FILLER_0_27_217
*888 FILLER_0_27_223
*889 FILLER_0_27_225
*890 FILLER_0_27_237
*891 FILLER_0_27_249
*892 FILLER_0_27_261
*893 FILLER_0_27_27
*894 FILLER_0_27_273
*895 FILLER_0_27_279
*896 FILLER_0_27_281
*897 FILLER_0_27_293
*898 FILLER_0_27_3
*899 FILLER_0_27_305
*900 FILLER_0_27_317
*901 FILLER_0_27_329
*902 FILLER_0_27_335
*903 FILLER_0_27_337
*904 FILLER_0_27_349
*905 FILLER_0_27_361
*906 FILLER_0_27_367
*907 FILLER_0_27_39
*908 FILLER_0_27_51
*909 FILLER_0_27_55
*910 FILLER_0_27_57
*911 FILLER_0_27_69
*912 FILLER_0_27_81
*913 FILLER_0_27_93
*914 FILLER_0_28_109
*915 FILLER_0_28_121
*916 FILLER_0_28_133
*917 FILLER_0_28_139
*918 FILLER_0_28_141
*919 FILLER_0_28_15
*920 FILLER_0_28_153
*921 FILLER_0_28_165
*922 FILLER_0_28_177
*923 FILLER_0_28_189
*924 FILLER_0_28_195
*925 FILLER_0_28_197
*926 FILLER_0_28_209
*927 FILLER_0_28_221
*928 FILLER_0_28_233
*929 FILLER_0_28_245
*930 FILLER_0_28_251
*931 FILLER_0_28_253
*932 FILLER_0_28_265
*933 FILLER_0_28_27
*934 FILLER_0_28_277
*935 FILLER_0_28_289
*936 FILLER_0_28_29
*937 FILLER_0_28_3
*938 FILLER_0_28_301
*939 FILLER_0_28_307
*940 FILLER_0_28_309
*941 FILLER_0_28_321
*942 FILLER_0_28_333
*943 FILLER_0_28_345
*944 FILLER_0_28_357
*945 FILLER_0_28_363
*946 FILLER_0_28_365
*947 FILLER_0_28_41
*948 FILLER_0_28_53
*949 FILLER_0_28_65
*950 FILLER_0_28_77
*951 FILLER_0_28_83
*952 FILLER_0_28_85
*953 FILLER_0_28_97
*954 FILLER_0_29_105
*955 FILLER_0_29_111
*956 FILLER_0_29_113
*957 FILLER_0_29_125
*958 FILLER_0_29_137
*959 FILLER_0_29_149
*960 FILLER_0_29_15
*961 FILLER_0_29_161
*962 FILLER_0_29_167
*963 FILLER_0_29_169
*964 FILLER_0_29_181
*965 FILLER_0_29_193
*966 FILLER_0_29_205
*967 FILLER_0_29_217
*968 FILLER_0_29_223
*969 FILLER_0_29_225
*970 FILLER_0_29_237
*971 FILLER_0_29_249
*972 FILLER_0_29_261
*973 FILLER_0_29_27
*974 FILLER_0_29_273
*975 FILLER_0_29_279
*976 FILLER_0_29_281
*977 FILLER_0_29_293
*978 FILLER_0_29_3
*979 FILLER_0_29_305
*980 FILLER_0_29_317
*981 FILLER_0_29_329
*982 FILLER_0_29_335
*983 FILLER_0_29_337
*984 FILLER_0_29_349
*985 FILLER_0_29_361
*986 FILLER_0_29_367
*987 FILLER_0_29_39
*988 FILLER_0_29_51
*989 FILLER_0_29_55
*990 FILLER_0_29_57
*991 FILLER_0_29_69
*992 FILLER_0_29_81
*993 FILLER_0_29_93
*994 FILLER_0_2_102
*995 FILLER_0_2_106
*996 FILLER_0_2_123
*997 FILLER_0_2_127
*998 FILLER_0_2_139
*999 FILLER_0_2_141
*1000 FILLER_0_2_15
*1001 FILLER_0_2_153
*1002 FILLER_0_2_165
*1003 FILLER_0_2_177
*1004 FILLER_0_2_189
*1005 FILLER_0_2_195
*1006 FILLER_0_2_197
*1007 FILLER_0_2_209
*1008 FILLER_0_2_221
*1009 FILLER_0_2_23
*1010 FILLER_0_2_233
*1011 FILLER_0_2_245
*1012 FILLER_0_2_251
*1013 FILLER_0_2_253
*1014 FILLER_0_2_265
*1015 FILLER_0_2_277
*1016 FILLER_0_2_289
*1017 FILLER_0_2_3
*1018 FILLER_0_2_301
*1019 FILLER_0_2_307
*1020 FILLER_0_2_309
*1021 FILLER_0_2_321
*1022 FILLER_0_2_333
*1023 FILLER_0_2_345
*1024 FILLER_0_2_357
*1025 FILLER_0_2_363
*1026 FILLER_0_2_365
*1027 FILLER_0_2_77
*1028 FILLER_0_2_81
*1029 FILLER_0_2_85
*1030 FILLER_0_30_109
*1031 FILLER_0_30_121
*1032 FILLER_0_30_133
*1033 FILLER_0_30_139
*1034 FILLER_0_30_141
*1035 FILLER_0_30_15
*1036 FILLER_0_30_153
*1037 FILLER_0_30_165
*1038 FILLER_0_30_177
*1039 FILLER_0_30_189
*1040 FILLER_0_30_195
*1041 FILLER_0_30_197
*1042 FILLER_0_30_209
*1043 FILLER_0_30_221
*1044 FILLER_0_30_233
*1045 FILLER_0_30_245
*1046 FILLER_0_30_251
*1047 FILLER_0_30_253
*1048 FILLER_0_30_265
*1049 FILLER_0_30_27
*1050 FILLER_0_30_277
*1051 FILLER_0_30_289
*1052 FILLER_0_30_29
*1053 FILLER_0_30_3
*1054 FILLER_0_30_301
*1055 FILLER_0_30_307
*1056 FILLER_0_30_309
*1057 FILLER_0_30_321
*1058 FILLER_0_30_333
*1059 FILLER_0_30_345
*1060 FILLER_0_30_357
*1061 FILLER_0_30_363
*1062 FILLER_0_30_365
*1063 FILLER_0_30_41
*1064 FILLER_0_30_53
*1065 FILLER_0_30_65
*1066 FILLER_0_30_77
*1067 FILLER_0_30_83
*1068 FILLER_0_30_85
*1069 FILLER_0_30_97
*1070 FILLER_0_31_105
*1071 FILLER_0_31_111
*1072 FILLER_0_31_113
*1073 FILLER_0_31_125
*1074 FILLER_0_31_137
*1075 FILLER_0_31_149
*1076 FILLER_0_31_15
*1077 FILLER_0_31_161
*1078 FILLER_0_31_167
*1079 FILLER_0_31_169
*1080 FILLER_0_31_181
*1081 FILLER_0_31_193
*1082 FILLER_0_31_205
*1083 FILLER_0_31_217
*1084 FILLER_0_31_223
*1085 FILLER_0_31_225
*1086 FILLER_0_31_237
*1087 FILLER_0_31_249
*1088 FILLER_0_31_261
*1089 FILLER_0_31_27
*1090 FILLER_0_31_273
*1091 FILLER_0_31_279
*1092 FILLER_0_31_281
*1093 FILLER_0_31_293
*1094 FILLER_0_31_3
*1095 FILLER_0_31_305
*1096 FILLER_0_31_317
*1097 FILLER_0_31_329
*1098 FILLER_0_31_335
*1099 FILLER_0_31_337
*1100 FILLER_0_31_349
*1101 FILLER_0_31_361
*1102 FILLER_0_31_367
*1103 FILLER_0_31_39
*1104 FILLER_0_31_51
*1105 FILLER_0_31_55
*1106 FILLER_0_31_57
*1107 FILLER_0_31_69
*1108 FILLER_0_31_81
*1109 FILLER_0_31_93
*1110 FILLER_0_32_109
*1111 FILLER_0_32_121
*1112 FILLER_0_32_133
*1113 FILLER_0_32_139
*1114 FILLER_0_32_141
*1115 FILLER_0_32_15
*1116 FILLER_0_32_153
*1117 FILLER_0_32_165
*1118 FILLER_0_32_177
*1119 FILLER_0_32_189
*1120 FILLER_0_32_195
*1121 FILLER_0_32_197
*1122 FILLER_0_32_209
*1123 FILLER_0_32_221
*1124 FILLER_0_32_233
*1125 FILLER_0_32_245
*1126 FILLER_0_32_251
*1127 FILLER_0_32_253
*1128 FILLER_0_32_265
*1129 FILLER_0_32_27
*1130 FILLER_0_32_277
*1131 FILLER_0_32_289
*1132 FILLER_0_32_29
*1133 FILLER_0_32_3
*1134 FILLER_0_32_301
*1135 FILLER_0_32_307
*1136 FILLER_0_32_309
*1137 FILLER_0_32_321
*1138 FILLER_0_32_333
*1139 FILLER_0_32_345
*1140 FILLER_0_32_357
*1141 FILLER_0_32_363
*1142 FILLER_0_32_365
*1143 FILLER_0_32_41
*1144 FILLER_0_32_53
*1145 FILLER_0_32_65
*1146 FILLER_0_32_77
*1147 FILLER_0_32_83
*1148 FILLER_0_32_85
*1149 FILLER_0_32_97
*1150 FILLER_0_33_105
*1151 FILLER_0_33_111
*1152 FILLER_0_33_113
*1153 FILLER_0_33_125
*1154 FILLER_0_33_137
*1155 FILLER_0_33_149
*1156 FILLER_0_33_15
*1157 FILLER_0_33_161
*1158 FILLER_0_33_167
*1159 FILLER_0_33_169
*1160 FILLER_0_33_181
*1161 FILLER_0_33_193
*1162 FILLER_0_33_205
*1163 FILLER_0_33_217
*1164 FILLER_0_33_223
*1165 FILLER_0_33_225
*1166 FILLER_0_33_237
*1167 FILLER_0_33_249
*1168 FILLER_0_33_261
*1169 FILLER_0_33_27
*1170 FILLER_0_33_273
*1171 FILLER_0_33_279
*1172 FILLER_0_33_281
*1173 FILLER_0_33_293
*1174 FILLER_0_33_3
*1175 FILLER_0_33_305
*1176 FILLER_0_33_317
*1177 FILLER_0_33_329
*1178 FILLER_0_33_335
*1179 FILLER_0_33_337
*1180 FILLER_0_33_349
*1181 FILLER_0_33_361
*1182 FILLER_0_33_367
*1183 FILLER_0_33_39
*1184 FILLER_0_33_51
*1185 FILLER_0_33_55
*1186 FILLER_0_33_57
*1187 FILLER_0_33_69
*1188 FILLER_0_33_81
*1189 FILLER_0_33_93
*1190 FILLER_0_34_109
*1191 FILLER_0_34_121
*1192 FILLER_0_34_133
*1193 FILLER_0_34_139
*1194 FILLER_0_34_141
*1195 FILLER_0_34_15
*1196 FILLER_0_34_153
*1197 FILLER_0_34_165
*1198 FILLER_0_34_177
*1199 FILLER_0_34_189
*1200 FILLER_0_34_195
*1201 FILLER_0_34_197
*1202 FILLER_0_34_209
*1203 FILLER_0_34_221
*1204 FILLER_0_34_233
*1205 FILLER_0_34_245
*1206 FILLER_0_34_251
*1207 FILLER_0_34_253
*1208 FILLER_0_34_265
*1209 FILLER_0_34_27
*1210 FILLER_0_34_277
*1211 FILLER_0_34_289
*1212 FILLER_0_34_29
*1213 FILLER_0_34_3
*1214 FILLER_0_34_301
*1215 FILLER_0_34_307
*1216 FILLER_0_34_309
*1217 FILLER_0_34_321
*1218 FILLER_0_34_333
*1219 FILLER_0_34_345
*1220 FILLER_0_34_357
*1221 FILLER_0_34_363
*1222 FILLER_0_34_365
*1223 FILLER_0_34_41
*1224 FILLER_0_34_53
*1225 FILLER_0_34_65
*1226 FILLER_0_34_77
*1227 FILLER_0_34_83
*1228 FILLER_0_34_85
*1229 FILLER_0_34_97
*1230 FILLER_0_35_105
*1231 FILLER_0_35_111
*1232 FILLER_0_35_113
*1233 FILLER_0_35_125
*1234 FILLER_0_35_137
*1235 FILLER_0_35_149
*1236 FILLER_0_35_15
*1237 FILLER_0_35_161
*1238 FILLER_0_35_167
*1239 FILLER_0_35_169
*1240 FILLER_0_35_181
*1241 FILLER_0_35_193
*1242 FILLER_0_35_205
*1243 FILLER_0_35_217
*1244 FILLER_0_35_223
*1245 FILLER_0_35_225
*1246 FILLER_0_35_237
*1247 FILLER_0_35_249
*1248 FILLER_0_35_261
*1249 FILLER_0_35_27
*1250 FILLER_0_35_273
*1251 FILLER_0_35_279
*1252 FILLER_0_35_281
*1253 FILLER_0_35_293
*1254 FILLER_0_35_3
*1255 FILLER_0_35_305
*1256 FILLER_0_35_317
*1257 FILLER_0_35_329
*1258 FILLER_0_35_335
*1259 FILLER_0_35_337
*1260 FILLER_0_35_349
*1261 FILLER_0_35_361
*1262 FILLER_0_35_367
*1263 FILLER_0_35_39
*1264 FILLER_0_35_51
*1265 FILLER_0_35_55
*1266 FILLER_0_35_57
*1267 FILLER_0_35_69
*1268 FILLER_0_35_81
*1269 FILLER_0_35_93
*1270 FILLER_0_36_109
*1271 FILLER_0_36_121
*1272 FILLER_0_36_133
*1273 FILLER_0_36_139
*1274 FILLER_0_36_141
*1275 FILLER_0_36_15
*1276 FILLER_0_36_153
*1277 FILLER_0_36_165
*1278 FILLER_0_36_177
*1279 FILLER_0_36_189
*1280 FILLER_0_36_195
*1281 FILLER_0_36_197
*1282 FILLER_0_36_209
*1283 FILLER_0_36_221
*1284 FILLER_0_36_233
*1285 FILLER_0_36_245
*1286 FILLER_0_36_251
*1287 FILLER_0_36_253
*1288 FILLER_0_36_265
*1289 FILLER_0_36_27
*1290 FILLER_0_36_277
*1291 FILLER_0_36_289
*1292 FILLER_0_36_29
*1293 FILLER_0_36_3
*1294 FILLER_0_36_301
*1295 FILLER_0_36_307
*1296 FILLER_0_36_309
*1297 FILLER_0_36_321
*1298 FILLER_0_36_333
*1299 FILLER_0_36_345
*1300 FILLER_0_36_357
*1301 FILLER_0_36_363
*1302 FILLER_0_36_365
*1303 FILLER_0_36_41
*1304 FILLER_0_36_53
*1305 FILLER_0_36_65
*1306 FILLER_0_36_77
*1307 FILLER_0_36_83
*1308 FILLER_0_36_85
*1309 FILLER_0_36_97
*1310 FILLER_0_37_105
*1311 FILLER_0_37_111
*1312 FILLER_0_37_113
*1313 FILLER_0_37_125
*1314 FILLER_0_37_137
*1315 FILLER_0_37_149
*1316 FILLER_0_37_15
*1317 FILLER_0_37_161
*1318 FILLER_0_37_167
*1319 FILLER_0_37_169
*1320 FILLER_0_37_181
*1321 FILLER_0_37_193
*1322 FILLER_0_37_205
*1323 FILLER_0_37_217
*1324 FILLER_0_37_223
*1325 FILLER_0_37_225
*1326 FILLER_0_37_237
*1327 FILLER_0_37_249
*1328 FILLER_0_37_261
*1329 FILLER_0_37_27
*1330 FILLER_0_37_273
*1331 FILLER_0_37_279
*1332 FILLER_0_37_281
*1333 FILLER_0_37_293
*1334 FILLER_0_37_3
*1335 FILLER_0_37_305
*1336 FILLER_0_37_317
*1337 FILLER_0_37_329
*1338 FILLER_0_37_335
*1339 FILLER_0_37_337
*1340 FILLER_0_37_349
*1341 FILLER_0_37_361
*1342 FILLER_0_37_367
*1343 FILLER_0_37_39
*1344 FILLER_0_37_51
*1345 FILLER_0_37_55
*1346 FILLER_0_37_57
*1347 FILLER_0_37_69
*1348 FILLER_0_37_81
*1349 FILLER_0_37_93
*1350 FILLER_0_38_109
*1351 FILLER_0_38_121
*1352 FILLER_0_38_133
*1353 FILLER_0_38_139
*1354 FILLER_0_38_141
*1355 FILLER_0_38_15
*1356 FILLER_0_38_153
*1357 FILLER_0_38_165
*1358 FILLER_0_38_177
*1359 FILLER_0_38_189
*1360 FILLER_0_38_195
*1361 FILLER_0_38_197
*1362 FILLER_0_38_209
*1363 FILLER_0_38_221
*1364 FILLER_0_38_233
*1365 FILLER_0_38_245
*1366 FILLER_0_38_251
*1367 FILLER_0_38_253
*1368 FILLER_0_38_265
*1369 FILLER_0_38_27
*1370 FILLER_0_38_277
*1371 FILLER_0_38_289
*1372 FILLER_0_38_29
*1373 FILLER_0_38_3
*1374 FILLER_0_38_301
*1375 FILLER_0_38_307
*1376 FILLER_0_38_309
*1377 FILLER_0_38_321
*1378 FILLER_0_38_333
*1379 FILLER_0_38_345
*1380 FILLER_0_38_357
*1381 FILLER_0_38_363
*1382 FILLER_0_38_365
*1383 FILLER_0_38_41
*1384 FILLER_0_38_53
*1385 FILLER_0_38_65
*1386 FILLER_0_38_77
*1387 FILLER_0_38_83
*1388 FILLER_0_38_85
*1389 FILLER_0_38_97
*1390 FILLER_0_39_105
*1391 FILLER_0_39_111
*1392 FILLER_0_39_113
*1393 FILLER_0_39_125
*1394 FILLER_0_39_137
*1395 FILLER_0_39_149
*1396 FILLER_0_39_15
*1397 FILLER_0_39_161
*1398 FILLER_0_39_167
*1399 FILLER_0_39_169
*1400 FILLER_0_39_181
*1401 FILLER_0_39_193
*1402 FILLER_0_39_205
*1403 FILLER_0_39_217
*1404 FILLER_0_39_223
*1405 FILLER_0_39_225
*1406 FILLER_0_39_237
*1407 FILLER_0_39_249
*1408 FILLER_0_39_261
*1409 FILLER_0_39_27
*1410 FILLER_0_39_273
*1411 FILLER_0_39_279
*1412 FILLER_0_39_281
*1413 FILLER_0_39_293
*1414 FILLER_0_39_3
*1415 FILLER_0_39_305
*1416 FILLER_0_39_317
*1417 FILLER_0_39_329
*1418 FILLER_0_39_335
*1419 FILLER_0_39_337
*1420 FILLER_0_39_349
*1421 FILLER_0_39_361
*1422 FILLER_0_39_367
*1423 FILLER_0_39_39
*1424 FILLER_0_39_51
*1425 FILLER_0_39_55
*1426 FILLER_0_39_57
*1427 FILLER_0_39_69
*1428 FILLER_0_39_81
*1429 FILLER_0_39_93
*1430 FILLER_0_3_103
*1431 FILLER_0_3_107
*1432 FILLER_0_3_111
*1433 FILLER_0_3_113
*1434 FILLER_0_3_125
*1435 FILLER_0_3_137
*1436 FILLER_0_3_149
*1437 FILLER_0_3_15
*1438 FILLER_0_3_161
*1439 FILLER_0_3_167
*1440 FILLER_0_3_169
*1441 FILLER_0_3_181
*1442 FILLER_0_3_193
*1443 FILLER_0_3_205
*1444 FILLER_0_3_217
*1445 FILLER_0_3_223
*1446 FILLER_0_3_225
*1447 FILLER_0_3_237
*1448 FILLER_0_3_249
*1449 FILLER_0_3_261
*1450 FILLER_0_3_273
*1451 FILLER_0_3_279
*1452 FILLER_0_3_281
*1453 FILLER_0_3_293
*1454 FILLER_0_3_3
*1455 FILLER_0_3_305
*1456 FILLER_0_3_317
*1457 FILLER_0_3_329
*1458 FILLER_0_3_335
*1459 FILLER_0_3_337
*1460 FILLER_0_3_349
*1461 FILLER_0_3_35
*1462 FILLER_0_3_361
*1463 FILLER_0_3_367
*1464 FILLER_0_3_39
*1465 FILLER_0_3_53
*1466 FILLER_0_3_57
*1467 FILLER_0_3_61